<configuration>
    <input>
        <net-file value="intersection.net.xml"/>
        <route-files value="routes_plain.rou.xml"/>
        <gui-settings-file value="viewsettings.xml"/>
    </input>
    <time>
        <begin value="0"/>
        <end value="3600"/>
        <step-length value="1"/>
    </time>
    <processing>
        <time-to-teleport value="-1"/>
    </processing>
</configuration>